LAMMPS (27 May 2021)
include "P3TT_poly2_tink_LAMMPS.init"
units 	 real 	 # angstroms,kCal/mol,Daltons,Kelvin
atom_style 	 full 	 # select column format for Atoms section
pair_style 	 lj/cut/coul/cut 15.0 15.0 	 # cutoffLJ cutoff_coulomb
bond_style 	 harmonic 	 #parameters needed: k_bond, r0
angle_style 	 harmonic 	 #parameters needed: k_theta, theta0
dihedral_style 	 hybrid opls quadratic
boundary 	 p p p
improper_style 	 cvff
#kspace_style 	 pppm 1.0e-5 	 # long-range electrostatics sum method
pair_modify mix geometric 	 #using OPLS mixing rules
special_bonds lj/coul 0.0 0.0 0.5 	 #scale factor for converting between tinker and lammps parameters

read_data "P3TT_poly2_tink_LAMMPS.data"
Reading data file ...
  orthogonal box = (0.0000000 0.0000000 0.0000000) to (10.525010 10.525010 10.525010)
  reading atoms ...
  34 atoms
  scanning bonds ...
  scanning angles ...
  scanning dihedrals ...
  reading bonds ...
  35 bonds
  reading angles ...
  62 angles
  reading dihedrals ...
  84 dihedrals
Finding 1-2 1-3 1-4 neighbors ...
     4 = max # of 1-2 neighbors
     7 = max # of 1-3 neighbors
    15 = max # of 1-4 neighbors
    16 = max # of special neighbors

include "P3TT_poly2_tink_LAMMPS.settings"
#Non-bonded interactions
#pair_coeff atomType1 atomType2 eps(kcal/mol) sigma(ang)
pair_coeff 1 	 1 	 0.25 	 3.55
pair_coeff 2 	 2 	 0.07 	 3.55
pair_coeff 3 	 3 	 0.07 	 3.55
pair_coeff 4 	 4 	 0.07 	 3.55
pair_coeff 5 	 5 	 0.07 	 3.55
pair_coeff 6 	 6 	 0.03 	 2.42
pair_coeff 7 	 7 	 0.07 	 3.55
pair_coeff 8 	 8 	 0.03 	 2.5
pair_coeff 9 	 9 	 0.066 	 3.5
pair_coeff 10 	 10 	 0.066 	 3.5
pair_coeff 11 	 11 	 0.03 	 2.42

#Stretching Interactions
#bond_coeff bondtype k (kcal/mol ang^-2) R0 (ang)
bond_coeff 1 	 250.0 	 1.758
bond_coeff 2 	 250.0 	 1.75
bond_coeff 3 	 546.0 	 1.386
bond_coeff 4 	 367.0 	 1.08
bond_coeff 5 	 546.0 	 1.428
bond_coeff 6 	 317.0 	 1.508
bond_coeff 7 	 546.0 	 1.378
bond_coeff 8 	 546.0 	 1.454
bond_coeff 9 	 340.0 	 1.09
bond_coeff 10 	 268.0 	 1.529

#3-body bend interactions
#angle_coeff angletype k (kcal/mol rad^-2) theta_0 (deg)
angle_coeff 1 	 74.0 	 92.1
angle_coeff 2 	 70.0 	 111.0
angle_coeff 3 	 35.0 	 121.6
angle_coeff 4 	 35.0 	 120.0
angle_coeff 5 	 70.0 	 112.0
angle_coeff 6 	 70.0 	 125.6
angle_coeff 7 	 70.0 	 122.4
angle_coeff 8 	 70.0 	 114.8
angle_coeff 9 	 35.0 	 132.1
angle_coeff 10 	 35.0 	 125.7
angle_coeff 11 	 70.0 	 110.0
angle_coeff 12 	 70.0 	 123.1
angle_coeff 13 	 70.0 	 127.5
angle_coeff 14 	 35.0 	 109.5
angle_coeff 15 	 70.0 	 115.3
angle_coeff 16 	 33.0 	 107.8
angle_coeff 17 	 37.5 	 110.7
angle_coeff 18 	 58.35 	 112.7
angle_coeff 19 	 70.0 	 118.4
angle_coeff 20 	 70.0 	 131.1

#Dihedral parameters
#dihedral_coeff dihedral_type V1 V2 V3 V4
dihedral_coeff 1 opls 	 0.0 	 3.05 	 0.0 	 0.0
dihedral_coeff 2 opls	 0.0 	 2.8 	 0.0 	 0.0
dihedral_coeff 3 opls	 0.0 	 7.25 	 0.0 	 0.0
dihedral_coeff 4 opls	 0.0 	 0.0 	 0.0 	 0.0
dihedral_coeff 5 opls	 1.674 	 3.438 	 -0.126 	 -0.035
dihedral_coeff 6 opls	 0.0 	 0.0 	 0.462 	 0.0
dihedral_coeff 7 opls	 0.0 	 0.0 	 0.4 	 0.0
dihedral_coeff 8 opls	 0.0 	 0.0 	 0.3 	 0.0
#dihedral_coeff 9 quadratic 300 60
dihedral_coeff 9 opls 0.0 0.0 0.0 0.0

#Improper interactions
#Improper_coeff improper_type PARAMS

timestep 1
thermo 4000
thermo_style custom step temp press vol etotal ke pe ebond eangle edihed eimp evdwl ecoul elong density
neigh_modify delay 0 every 1 check yes page 100000 one 10000

minimize 1.0e-6 1.0e-6 1000 1000
  update every 1 steps, delay 0 steps, check yes
Step Temp Press Volume TotEng KinEng PotEng E_bond E_angle E_dihed E_impro E_vdwl E_coul E_long Density
0            0   -51.881059    1165.9168    15.445273            0    15.445273   0.18870281    2.6731515    2.6669035            0   -5.2363274    15.152842            0   0.35665396
Loop time of 0.0200169 on 1 procs for 13 steps with 34 atoms

Minimization stats:
  Stopping criterion = linesearch alpha is zero
  Energy initial, next-to-last, final =
  Force two-norm initial, final = 1.2840203 2.5026963
  Force max component initial, final = 0.48269162 1.2203589
  Final line search alpha, max atom move = 1.2210475e-09 1.4901161e-09
  Iterations, force evaluations = 13 95

fix 1 all nve
fix 4 all langevin 600.0 300.0 100.0 36734
run 5000000
Step Temp Press Volume TotEng KinEng PotEng E_bond E_angle E_dihed E_impro E_vdwl E_coul E_long Density
13            0   -164.22594    1165.9168    15.359694            0    15.359694   0.19951199    2.6885236    2.6645641            0   -5.2632234    15.070318            0   0.35665396
Averages over the last 626 of 1252 rows, steps 2504000 to 5000013:
Temp Press Volume TotEng KinEng PotEng E_bond E_angle E_dihed E_impro E_vdwl E_coul E_long Density
387.772 115.208 1165.92 95.5411 38.1439 57.3972 13.5786 17.7615 8.53103 0 -3.95878 21.4848 0 0.356654
Loop time of 670.794 on 1 procs for 5000000 steps with 34 atoms

unfix 4

dump 5 all custom 4000 300K_bithio_test.trj id type mass xu yu zu x y z
dump_modify 5 sort id

fix 4 all langevin 300.0 300.0 100.0 91823
run 40000000
Step Temp Press Volume TotEng KinEng PotEng E_bond E_angle E_dihed E_impro E_vdwl E_coul E_long Density
5000013    303.80827   -1393.1648    1165.9168    81.570159    29.884627    51.685532    13.657019     16.66065    8.8907036            0   -5.3501615    17.827322            0   0.35665396
Averages over the last 5001 of 10002 rows, steps 25004000 to 45000013:
Temp Press Volume TotEng KinEng PotEng E_bond E_angle E_dihed E_impro E_vdwl E_coul E_long Density
308.689 112.706 1165.92 80.7133 30.3648 50.3485 11.0191 14.8969 7.29981 0 -4.23366 21.3663 0 0.356654
Loop time of 5220.38 on 1 procs for 40000000 steps with 34 atoms

# run 4000

undump 5
unfix 4
unfix 1
